
---------- Begin Simulation Statistics ----------
final_tick                                 3070069500                       # Number of ticks from beginning of simulation (restored from checkpoints and never reset)
host_inst_rate                                 331232                       # Simulator instruction rate (inst/s)
host_mem_usage                                 678880                       # Number of bytes of host memory used
host_op_rate                                   394592                       # Simulator op (including micro ops) rate (op/s)
host_seconds                                    16.07                       # Real time elapsed on the host
host_tick_rate                              191018152                       # Simulator tick rate (ticks/s)
sim_freq                                 1000000000000                       # Frequency of simulated ticks
sim_insts                                     5323578                       # Number of instructions simulated
sim_ops                                       6341932                       # Number of ops (including micro ops) simulated
sim_seconds                                  0.003070                       # Number of seconds simulated
sim_ticks                                  3070069500                       # Number of ticks simulated
system.cpu.branchPred.BTBCorrect                    0                       # Number of correct BTB predictions (this stat may not work properly.
system.cpu.branchPred.BTBHitPct             44.280435                       # BTB Hit Percentage
system.cpu.branchPred.BTBHits                  219650                       # Number of BTB hits
system.cpu.branchPred.BTBLookups               496043                       # Number of BTB lookups
system.cpu.branchPred.RASInCorrect                  4                       # Number of incorrect RAS predictions.
system.cpu.branchPred.condIncorrect             20628                       # Number of conditional branches incorrect
system.cpu.branchPred.condPredicted            322312                       # Number of conditional branches predicted
system.cpu.branchPred.indirectHits             161391                       # Number of indirect target hits.
system.cpu.branchPred.indirectLookups          191165                       # Number of indirect predictor lookups.
system.cpu.branchPred.indirectMisses            29774                       # Number of indirect misses.
system.cpu.branchPred.lookups                  746826                       # Number of BP lookups
system.cpu.branchPred.usedRAS                  156401                       # Number of times the RAS was used to get a target.
system.cpu.branchPredindirectMispredicted         7650                       # Number of mispredicted indirect branches.
system.cpu.committedInsts                     5323578                       # Number of instructions committed
system.cpu.committedOps                       6341932                       # Number of ops (including micro ops) committed
system.cpu.cpi                               1.153386                       # CPI: cycles per instruction
system.cpu.discardedOps                         92384                       # Number of ops (including micro ops) which were discarded before commit
system.cpu.dtb.accesses                             0                       # DTB accesses
system.cpu.dtb.align_faults                         0                       # Number of TLB faults due to alignment restrictions
system.cpu.dtb.domain_faults                        0                       # Number of TLB faults due to domain restrictions
system.cpu.dtb.flush_entries                        0                       # Number of entries that have been flushed from TLB
system.cpu.dtb.flush_tlb                            0                       # Number of times complete TLB was flushed
system.cpu.dtb.flush_tlb_asid                       0                       # Number of times TLB was flushed by ASID
system.cpu.dtb.flush_tlb_mva                        0                       # Number of times TLB was flushed by MVA
system.cpu.dtb.flush_tlb_mva_asid                   0                       # Number of times TLB was flushed by MVA & ASID
system.cpu.dtb.hits                                 0                       # DTB hits
system.cpu.dtb.inst_accesses                        0                       # ITB inst accesses
system.cpu.dtb.inst_hits                            0                       # ITB inst hits
system.cpu.dtb.inst_misses                          0                       # ITB inst misses
system.cpu.dtb.misses                               0                       # DTB misses
system.cpu.dtb.perms_faults                         0                       # Number of TLB faults due to permissions restrictions
system.cpu.dtb.prefetch_faults                      0                       # Number of TLB faults due to prefetch
system.cpu.dtb.read_accesses                        0                       # DTB read accesses
system.cpu.dtb.read_hits                            0                       # DTB read hits
system.cpu.dtb.read_misses                          0                       # DTB read misses
system.cpu.dtb.stage2_mmu.stage2_tlb.accesses            0                       # DTB accesses
system.cpu.dtb.stage2_mmu.stage2_tlb.align_faults            0                       # Number of TLB faults due to alignment restrictions
system.cpu.dtb.stage2_mmu.stage2_tlb.domain_faults            0                       # Number of TLB faults due to domain restrictions
system.cpu.dtb.stage2_mmu.stage2_tlb.flush_entries            0                       # Number of entries that have been flushed from TLB
system.cpu.dtb.stage2_mmu.stage2_tlb.flush_tlb            0                       # Number of times complete TLB was flushed
system.cpu.dtb.stage2_mmu.stage2_tlb.flush_tlb_asid            0                       # Number of times TLB was flushed by ASID
system.cpu.dtb.stage2_mmu.stage2_tlb.flush_tlb_mva            0                       # Number of times TLB was flushed by MVA
system.cpu.dtb.stage2_mmu.stage2_tlb.flush_tlb_mva_asid            0                       # Number of times TLB was flushed by MVA & ASID
system.cpu.dtb.stage2_mmu.stage2_tlb.hits            0                       # DTB hits
system.cpu.dtb.stage2_mmu.stage2_tlb.inst_accesses            0                       # ITB inst accesses
system.cpu.dtb.stage2_mmu.stage2_tlb.inst_hits            0                       # ITB inst hits
system.cpu.dtb.stage2_mmu.stage2_tlb.inst_misses            0                       # ITB inst misses
system.cpu.dtb.stage2_mmu.stage2_tlb.misses            0                       # DTB misses
system.cpu.dtb.stage2_mmu.stage2_tlb.perms_faults            0                       # Number of TLB faults due to permissions restrictions
system.cpu.dtb.stage2_mmu.stage2_tlb.prefetch_faults            0                       # Number of TLB faults due to prefetch
system.cpu.dtb.stage2_mmu.stage2_tlb.read_accesses            0                       # DTB read accesses
system.cpu.dtb.stage2_mmu.stage2_tlb.read_hits            0                       # DTB read hits
system.cpu.dtb.stage2_mmu.stage2_tlb.read_misses            0                       # DTB read misses
system.cpu.dtb.stage2_mmu.stage2_tlb.walker.walkRequestOrigin_Requested::Data            0                       # Table walker requests started/completed, data/inst
system.cpu.dtb.stage2_mmu.stage2_tlb.walker.walkRequestOrigin_Requested::Inst            0                       # Table walker requests started/completed, data/inst
system.cpu.dtb.stage2_mmu.stage2_tlb.walker.walkRequestOrigin_Requested::total            0                       # Table walker requests started/completed, data/inst
system.cpu.dtb.stage2_mmu.stage2_tlb.walker.walkRequestOrigin_Completed::Data            0                       # Table walker requests started/completed, data/inst
system.cpu.dtb.stage2_mmu.stage2_tlb.walker.walkRequestOrigin_Completed::Inst            0                       # Table walker requests started/completed, data/inst
system.cpu.dtb.stage2_mmu.stage2_tlb.walker.walkRequestOrigin_Completed::total            0                       # Table walker requests started/completed, data/inst
system.cpu.dtb.stage2_mmu.stage2_tlb.walker.walkRequestOrigin::total            0                       # Table walker requests started/completed, data/inst
system.cpu.dtb.stage2_mmu.stage2_tlb.walker.walks            0                       # Table walker walks requested
system.cpu.dtb.stage2_mmu.stage2_tlb.write_accesses            0                       # DTB write accesses
system.cpu.dtb.stage2_mmu.stage2_tlb.write_hits            0                       # DTB write hits
system.cpu.dtb.stage2_mmu.stage2_tlb.write_misses            0                       # DTB write misses
system.cpu.dtb.walker.walkRequestOrigin_Requested::Data            0                       # Table walker requests started/completed, data/inst
system.cpu.dtb.walker.walkRequestOrigin_Requested::Inst            0                       # Table walker requests started/completed, data/inst
system.cpu.dtb.walker.walkRequestOrigin_Requested::total            0                       # Table walker requests started/completed, data/inst
system.cpu.dtb.walker.walkRequestOrigin_Completed::Data            0                       # Table walker requests started/completed, data/inst
system.cpu.dtb.walker.walkRequestOrigin_Completed::Inst            0                       # Table walker requests started/completed, data/inst
system.cpu.dtb.walker.walkRequestOrigin_Completed::total            0                       # Table walker requests started/completed, data/inst
system.cpu.dtb.walker.walkRequestOrigin::total            0                       # Table walker requests started/completed, data/inst
system.cpu.dtb.walker.walks                         0                       # Table walker walks requested
system.cpu.dtb.write_accesses                       0                       # DTB write accesses
system.cpu.dtb.write_hits                           0                       # DTB write hits
system.cpu.dtb.write_misses                         0                       # DTB write misses
system.cpu.fetch2.amo_instructions                  0                       # Number of memory atomic instructions successfully decoded
system.cpu.fetch2.fp_instructions                   0                       # Number of floating point instructions successfully decoded
system.cpu.fetch2.int_instructions            3034274                       # Number of integer instructions successfully decoded
system.cpu.fetch2.load_instructions            821321                       # Number of memory load instructions successfully decoded
system.cpu.fetch2.store_instructions           402716                       # Number of memory store instructions successfully decoded
system.cpu.fetch2.vec_instructions                  0                       # Number of SIMD instructions successfully decoded
system.cpu.idleCycles                          174303                       # Total number of cycles that the object has spent stopped
system.cpu.ipc                               0.867013                       # IPC: instructions per cycle
system.cpu.itb.accesses                             0                       # DTB accesses
system.cpu.itb.align_faults                         0                       # Number of TLB faults due to alignment restrictions
system.cpu.itb.domain_faults                        0                       # Number of TLB faults due to domain restrictions
system.cpu.itb.flush_entries                        0                       # Number of entries that have been flushed from TLB
system.cpu.itb.flush_tlb                            0                       # Number of times complete TLB was flushed
system.cpu.itb.flush_tlb_asid                       0                       # Number of times TLB was flushed by ASID
system.cpu.itb.flush_tlb_mva                        0                       # Number of times TLB was flushed by MVA
system.cpu.itb.flush_tlb_mva_asid                   0                       # Number of times TLB was flushed by MVA & ASID
system.cpu.itb.hits                                 0                       # DTB hits
system.cpu.itb.inst_accesses                        0                       # ITB inst accesses
system.cpu.itb.inst_hits                            0                       # ITB inst hits
system.cpu.itb.inst_misses                          0                       # ITB inst misses
system.cpu.itb.misses                               0                       # DTB misses
system.cpu.itb.perms_faults                         0                       # Number of TLB faults due to permissions restrictions
system.cpu.itb.prefetch_faults                      0                       # Number of TLB faults due to prefetch
system.cpu.itb.read_accesses                        0                       # DTB read accesses
system.cpu.itb.read_hits                            0                       # DTB read hits
system.cpu.itb.read_misses                          0                       # DTB read misses
system.cpu.itb.stage2_mmu.stage2_tlb.accesses            0                       # DTB accesses
system.cpu.itb.stage2_mmu.stage2_tlb.align_faults            0                       # Number of TLB faults due to alignment restrictions
system.cpu.itb.stage2_mmu.stage2_tlb.domain_faults            0                       # Number of TLB faults due to domain restrictions
system.cpu.itb.stage2_mmu.stage2_tlb.flush_entries            0                       # Number of entries that have been flushed from TLB
system.cpu.itb.stage2_mmu.stage2_tlb.flush_tlb            0                       # Number of times complete TLB was flushed
system.cpu.itb.stage2_mmu.stage2_tlb.flush_tlb_asid            0                       # Number of times TLB was flushed by ASID
system.cpu.itb.stage2_mmu.stage2_tlb.flush_tlb_mva            0                       # Number of times TLB was flushed by MVA
system.cpu.itb.stage2_mmu.stage2_tlb.flush_tlb_mva_asid            0                       # Number of times TLB was flushed by MVA & ASID
system.cpu.itb.stage2_mmu.stage2_tlb.hits            0                       # DTB hits
system.cpu.itb.stage2_mmu.stage2_tlb.inst_accesses            0                       # ITB inst accesses
system.cpu.itb.stage2_mmu.stage2_tlb.inst_hits            0                       # ITB inst hits
system.cpu.itb.stage2_mmu.stage2_tlb.inst_misses            0                       # ITB inst misses
system.cpu.itb.stage2_mmu.stage2_tlb.misses            0                       # DTB misses
system.cpu.itb.stage2_mmu.stage2_tlb.perms_faults            0                       # Number of TLB faults due to permissions restrictions
system.cpu.itb.stage2_mmu.stage2_tlb.prefetch_faults            0                       # Number of TLB faults due to prefetch
system.cpu.itb.stage2_mmu.stage2_tlb.read_accesses            0                       # DTB read accesses
system.cpu.itb.stage2_mmu.stage2_tlb.read_hits            0                       # DTB read hits
system.cpu.itb.stage2_mmu.stage2_tlb.read_misses            0                       # DTB read misses
system.cpu.itb.stage2_mmu.stage2_tlb.walker.walkRequestOrigin_Requested::Data            0                       # Table walker requests started/completed, data/inst
system.cpu.itb.stage2_mmu.stage2_tlb.walker.walkRequestOrigin_Requested::Inst            0                       # Table walker requests started/completed, data/inst
system.cpu.itb.stage2_mmu.stage2_tlb.walker.walkRequestOrigin_Requested::total            0                       # Table walker requests started/completed, data/inst
system.cpu.itb.stage2_mmu.stage2_tlb.walker.walkRequestOrigin_Completed::Data            0                       # Table walker requests started/completed, data/inst
system.cpu.itb.stage2_mmu.stage2_tlb.walker.walkRequestOrigin_Completed::Inst            0                       # Table walker requests started/completed, data/inst
system.cpu.itb.stage2_mmu.stage2_tlb.walker.walkRequestOrigin_Completed::total            0                       # Table walker requests started/completed, data/inst
system.cpu.itb.stage2_mmu.stage2_tlb.walker.walkRequestOrigin::total            0                       # Table walker requests started/completed, data/inst
system.cpu.itb.stage2_mmu.stage2_tlb.walker.walks            0                       # Table walker walks requested
system.cpu.itb.stage2_mmu.stage2_tlb.write_accesses            0                       # DTB write accesses
system.cpu.itb.stage2_mmu.stage2_tlb.write_hits            0                       # DTB write hits
system.cpu.itb.stage2_mmu.stage2_tlb.write_misses            0                       # DTB write misses
system.cpu.itb.walker.walkRequestOrigin_Requested::Data            0                       # Table walker requests started/completed, data/inst
system.cpu.itb.walker.walkRequestOrigin_Requested::Inst            0                       # Table walker requests started/completed, data/inst
system.cpu.itb.walker.walkRequestOrigin_Requested::total            0                       # Table walker requests started/completed, data/inst
system.cpu.itb.walker.walkRequestOrigin_Completed::Data            0                       # Table walker requests started/completed, data/inst
system.cpu.itb.walker.walkRequestOrigin_Completed::Inst            0                       # Table walker requests started/completed, data/inst
system.cpu.itb.walker.walkRequestOrigin_Completed::total            0                       # Table walker requests started/completed, data/inst
system.cpu.itb.walker.walkRequestOrigin::total            0                       # Table walker requests started/completed, data/inst
system.cpu.itb.walker.walks                         0                       # Table walker walks requested
system.cpu.itb.write_accesses                       0                       # DTB write accesses
system.cpu.itb.write_hits                           0                       # DTB write hits
system.cpu.itb.write_misses                         0                       # DTB write misses
system.cpu.numCycles                          6140139                       # number of cpu cycles simulated
system.cpu.numFetchSuspends                         0                       # Number of times Execute suspended instruction fetching
system.cpu.numWorkItemsCompleted                    0                       # number of work items this cpu completed
system.cpu.numWorkItemsStarted                      0                       # number of work items this cpu started
system.cpu.op_class_0::No_OpClass                   0      0.00%      0.00% # Class of committed instruction
system.cpu.op_class_0::IntAlu                 4161920     65.63%     65.63% # Class of committed instruction
system.cpu.op_class_0::IntMult                  24713      0.39%     66.02% # Class of committed instruction
system.cpu.op_class_0::IntDiv                       0      0.00%     66.02% # Class of committed instruction
system.cpu.op_class_0::FloatAdd                     0      0.00%     66.02% # Class of committed instruction
system.cpu.op_class_0::FloatCmp                     0      0.00%     66.02% # Class of committed instruction
system.cpu.op_class_0::FloatCvt                     0      0.00%     66.02% # Class of committed instruction
system.cpu.op_class_0::FloatMult                    0      0.00%     66.02% # Class of committed instruction
system.cpu.op_class_0::FloatMultAcc                 0      0.00%     66.02% # Class of committed instruction
system.cpu.op_class_0::FloatDiv                     0      0.00%     66.02% # Class of committed instruction
system.cpu.op_class_0::FloatMisc                    0      0.00%     66.02% # Class of committed instruction
system.cpu.op_class_0::FloatSqrt                    0      0.00%     66.02% # Class of committed instruction
system.cpu.op_class_0::SimdAdd                      0      0.00%     66.02% # Class of committed instruction
system.cpu.op_class_0::SimdAddAcc                   0      0.00%     66.02% # Class of committed instruction
system.cpu.op_class_0::SimdAlu                      0      0.00%     66.02% # Class of committed instruction
system.cpu.op_class_0::SimdCmp                      0      0.00%     66.02% # Class of committed instruction
system.cpu.op_class_0::SimdCvt                      0      0.00%     66.02% # Class of committed instruction
system.cpu.op_class_0::SimdMisc                     0      0.00%     66.02% # Class of committed instruction
system.cpu.op_class_0::SimdMult                     0      0.00%     66.02% # Class of committed instruction
system.cpu.op_class_0::SimdMultAcc                  0      0.00%     66.02% # Class of committed instruction
system.cpu.op_class_0::SimdShift                    0      0.00%     66.02% # Class of committed instruction
system.cpu.op_class_0::SimdShiftAcc                 0      0.00%     66.02% # Class of committed instruction
system.cpu.op_class_0::SimdDiv                      0      0.00%     66.02% # Class of committed instruction
system.cpu.op_class_0::SimdSqrt                     0      0.00%     66.02% # Class of committed instruction
system.cpu.op_class_0::SimdFloatAdd                 0      0.00%     66.02% # Class of committed instruction
system.cpu.op_class_0::SimdFloatAlu                 0      0.00%     66.02% # Class of committed instruction
system.cpu.op_class_0::SimdFloatCmp                 0      0.00%     66.02% # Class of committed instruction
system.cpu.op_class_0::SimdFloatCvt                 0      0.00%     66.02% # Class of committed instruction
system.cpu.op_class_0::SimdFloatDiv                 0      0.00%     66.02% # Class of committed instruction
system.cpu.op_class_0::SimdFloatMisc              518      0.01%     66.02% # Class of committed instruction
system.cpu.op_class_0::SimdFloatMult                0      0.00%     66.02% # Class of committed instruction
system.cpu.op_class_0::SimdFloatMultAcc             0      0.00%     66.02% # Class of committed instruction
system.cpu.op_class_0::SimdFloatSqrt                0      0.00%     66.02% # Class of committed instruction
system.cpu.op_class_0::SimdReduceAdd                0      0.00%     66.02% # Class of committed instruction
system.cpu.op_class_0::SimdReduceAlu                0      0.00%     66.02% # Class of committed instruction
system.cpu.op_class_0::SimdReduceCmp                0      0.00%     66.02% # Class of committed instruction
system.cpu.op_class_0::SimdFloatReduceAdd            0      0.00%     66.02% # Class of committed instruction
system.cpu.op_class_0::SimdFloatReduceCmp            0      0.00%     66.02% # Class of committed instruction
system.cpu.op_class_0::SimdAes                      0      0.00%     66.02% # Class of committed instruction
system.cpu.op_class_0::SimdAesMix                   0      0.00%     66.02% # Class of committed instruction
system.cpu.op_class_0::SimdSha1Hash                 0      0.00%     66.02% # Class of committed instruction
system.cpu.op_class_0::SimdSha1Hash2                0      0.00%     66.02% # Class of committed instruction
system.cpu.op_class_0::SimdSha256Hash               0      0.00%     66.02% # Class of committed instruction
system.cpu.op_class_0::SimdSha256Hash2              0      0.00%     66.02% # Class of committed instruction
system.cpu.op_class_0::SimdShaSigma2                0      0.00%     66.02% # Class of committed instruction
system.cpu.op_class_0::SimdShaSigma3                0      0.00%     66.02% # Class of committed instruction
system.cpu.op_class_0::SimdPredAlu                  0      0.00%     66.02% # Class of committed instruction
system.cpu.op_class_0::MemRead                1308707     20.64%     86.66% # Class of committed instruction
system.cpu.op_class_0::MemWrite                846074     13.34%    100.00% # Class of committed instruction
system.cpu.op_class_0::FloatMemRead                 0      0.00%    100.00% # Class of committed instruction
system.cpu.op_class_0::FloatMemWrite                0      0.00%    100.00% # Class of committed instruction
system.cpu.op_class_0::IprAccess                    0      0.00%    100.00% # Class of committed instruction
system.cpu.op_class_0::InstPrefetch                 0      0.00%    100.00% # Class of committed instruction
system.cpu.op_class_0::total                  6341932                       # Class of committed instruction
system.cpu.tickCycles                         5965836                       # Number of cycles that the object actually ticked
system.cpu.workload.numSyscalls                    10                       # Number of system calls
system.membus.snoop_filter.hit_multi_requests           22                       # Number of requests hitting in the snoop filter with multiple (>1) holders of the requested data.
system.membus.snoop_filter.hit_multi_snoops            0                       # Number of snoops hitting in the snoop filter with multiple (>1) holders of the requested data.
system.membus.snoop_filter.hit_single_requests         1370                       # Number of requests hitting in the snoop filter with a single holder of the requested data.
system.membus.snoop_filter.hit_single_snoops            0                       # Number of snoops hitting in the snoop filter with a single holder of the requested data.
system.membus.snoop_filter.tot_requests          4049                       # Total number of requests made to the snoop filter.
system.membus.snoop_filter.tot_snoops               0                       # Total number of snoops made to the snoop filter.
system.membus.pwrStateResidencyTicks::UNDEFINED   3070069500                       # Cumulative time (in ticks) in various power states
system.membus.trans_dist::ReadResp               1085                       # Transaction distribution
system.membus.trans_dist::WritebackDirty          993                       # Transaction distribution
system.membus.trans_dist::WritebackClean          108                       # Transaction distribution
system.membus.trans_dist::CleanEvict              262                       # Transaction distribution
system.membus.trans_dist::ReadExReq              1601                       # Transaction distribution
system.membus.trans_dist::ReadExResp             1601                       # Transaction distribution
system.membus.trans_dist::ReadCleanReq            407                       # Transaction distribution
system.membus.trans_dist::ReadSharedReq           678                       # Transaction distribution
system.membus.pkt_count_system.cpu.icache.mem_side::system.mem_ctrls.port          922                       # Packet count per connected master and slave (bytes)
system.membus.pkt_count_system.cpu.dcache.mem_side::system.mem_ctrls.port         5813                       # Packet count per connected master and slave (bytes)
system.membus.pkt_count::total                   6735                       # Packet count per connected master and slave (bytes)
system.membus.pkt_size_system.cpu.icache.mem_side::system.mem_ctrls.port        32960                       # Cumulative packet size per connected master and slave (bytes)
system.membus.pkt_size_system.cpu.dcache.mem_side::system.mem_ctrls.port       209408                       # Cumulative packet size per connected master and slave (bytes)
system.membus.pkt_size::total                  242368                       # Cumulative packet size per connected master and slave (bytes)
system.membus.snoops                                0                       # Total snoops (count)
system.membus.snoopTraffic                          0                       # Total snoop traffic (bytes)
system.membus.snoop_fanout::samples              2686                       # Request fanout histogram
system.membus.snoop_fanout::mean             0.010797                       # Request fanout histogram
system.membus.snoop_fanout::stdev            0.103364                       # Request fanout histogram
system.membus.snoop_fanout::underflows              0      0.00%      0.00% # Request fanout histogram
system.membus.snoop_fanout::0                    2657     98.92%     98.92% # Request fanout histogram
system.membus.snoop_fanout::1                      29      1.08%    100.00% # Request fanout histogram
system.membus.snoop_fanout::2                       0      0.00%    100.00% # Request fanout histogram
system.membus.snoop_fanout::overflows               0      0.00%    100.00% # Request fanout histogram
system.membus.snoop_fanout::min_value               0                       # Request fanout histogram
system.membus.snoop_fanout::max_value               1                       # Request fanout histogram
system.membus.snoop_fanout::total                2686                       # Request fanout histogram
system.membus.reqLayer0.occupancy             8944000                       # Layer occupancy (ticks)
system.membus.reqLayer0.utilization               0.3                       # Layer utilization (%)
system.membus.respLayer1.occupancy            2217270                       # Layer occupancy (ticks)
system.membus.respLayer1.utilization              0.1                       # Layer utilization (%)
system.membus.respLayer2.occupancy           12366236                       # Layer occupancy (ticks)
system.membus.respLayer2.utilization              0.4                       # Layer utilization (%)
system.voltage_domain.voltage                       1                       # Voltage in Volts
system.clk_domain.clock                          1000                       # Clock period in ticks
system.cpu_voltage_domain.voltage                   1                       # Voltage in Volts
system.mem_ctrls.pwrStateResidencyTicks::UNDEFINED   3070069500                       # Cumulative time (in ticks) in various power states
system.mem_ctrls.bytes_read::.cpu.inst          26048                       # Number of bytes read from this memory
system.mem_ctrls.bytes_read::.cpu.data         145856                       # Number of bytes read from this memory
system.mem_ctrls.bytes_read::total             171904                       # Number of bytes read from this memory
system.mem_ctrls.bytes_inst_read::.cpu.inst        26048                       # Number of instructions bytes read from this memory
system.mem_ctrls.bytes_inst_read::total         26048                       # Number of instructions bytes read from this memory
system.mem_ctrls.bytes_written::.writebacks        63552                       # Number of bytes written to this memory
system.mem_ctrls.bytes_written::total           63552                       # Number of bytes written to this memory
system.mem_ctrls.num_reads::.cpu.inst             407                       # Number of read requests responded to by this memory
system.mem_ctrls.num_reads::.cpu.data            2279                       # Number of read requests responded to by this memory
system.mem_ctrls.num_reads::total                2686                       # Number of read requests responded to by this memory
system.mem_ctrls.num_writes::.writebacks          993                       # Number of write requests responded to by this memory
system.mem_ctrls.num_writes::total                993                       # Number of write requests responded to by this memory
system.mem_ctrls.bw_read::.cpu.inst           8484498                       # Total read bandwidth from this memory (bytes/s)
system.mem_ctrls.bw_read::.cpu.data          47509022                       # Total read bandwidth from this memory (bytes/s)
system.mem_ctrls.bw_read::total              55993521                       # Total read bandwidth from this memory (bytes/s)
system.mem_ctrls.bw_inst_read::.cpu.inst      8484498                       # Instruction read bandwidth from this memory (bytes/s)
system.mem_ctrls.bw_inst_read::total          8484498                       # Instruction read bandwidth from this memory (bytes/s)
system.mem_ctrls.bw_write::.writebacks       20700509                       # Write bandwidth from this memory (bytes/s)
system.mem_ctrls.bw_write::total             20700509                       # Write bandwidth from this memory (bytes/s)
system.mem_ctrls.bw_total::.writebacks       20700509                       # Total bandwidth to/from this memory (bytes/s)
system.mem_ctrls.bw_total::.cpu.inst          8484498                       # Total bandwidth to/from this memory (bytes/s)
system.mem_ctrls.bw_total::.cpu.data         47509022                       # Total bandwidth to/from this memory (bytes/s)
system.mem_ctrls.bw_total::total             76694029                       # Total bandwidth to/from this memory (bytes/s)
system.mem_ctrls.avgPriority_.writebacks::samples      1092.00                       # Average QoS priority value for accepted requests
system.mem_ctrls.avgPriority_.cpu.inst::samples       382.00                       # Average QoS priority value for accepted requests
system.mem_ctrls.avgPriority_.cpu.data::samples      2186.00                       # Average QoS priority value for accepted requests
system.mem_ctrls.priorityMinLatency      0.000000017492                       # per QoS priority minimum request to response latency (s)
system.mem_ctrls.priorityMaxLatency      0.002547233652                       # per QoS priority maximum request to response latency (s)
system.mem_ctrls.numReadWriteTurnArounds           61                       # Number of turnarounds from READ to WRITE
system.mem_ctrls.numWriteReadTurnArounds           61                       # Number of turnarounds from WRITE to READ
system.mem_ctrls.numStayReadState                6933                       # Number of times bus staying in READ state
system.mem_ctrls.numStayWriteState                976                       # Number of times bus staying in WRITE state
system.mem_ctrls.readReqs                        2686                       # Number of read requests accepted
system.mem_ctrls.writeReqs                       1099                       # Number of write requests accepted
system.mem_ctrls.readBursts                      2686                       # Number of DRAM read bursts, including those serviced by the write queue
system.mem_ctrls.writeBursts                     1099                       # Number of DRAM write bursts, including those merged in the write queue
system.mem_ctrls.servicedByWrQ                    118                       # Number of DRAM read bursts serviced by the write queue
system.mem_ctrls.mergedWrBursts                     7                       # Number of DRAM write bursts merged with an existing one
system.mem_ctrls.neitherReadNorWriteReqs            0                       # Number of requests that are neither read nor write
system.mem_ctrls.perBankRdBursts::0               129                       # Per bank write bursts
system.mem_ctrls.perBankRdBursts::1                13                       # Per bank write bursts
system.mem_ctrls.perBankRdBursts::2                49                       # Per bank write bursts
system.mem_ctrls.perBankRdBursts::3                 0                       # Per bank write bursts
system.mem_ctrls.perBankRdBursts::4                20                       # Per bank write bursts
system.mem_ctrls.perBankRdBursts::5                40                       # Per bank write bursts
system.mem_ctrls.perBankRdBursts::6                66                       # Per bank write bursts
system.mem_ctrls.perBankRdBursts::7                26                       # Per bank write bursts
system.mem_ctrls.perBankRdBursts::8                46                       # Per bank write bursts
system.mem_ctrls.perBankRdBursts::9               137                       # Per bank write bursts
system.mem_ctrls.perBankRdBursts::10              178                       # Per bank write bursts
system.mem_ctrls.perBankRdBursts::11              146                       # Per bank write bursts
system.mem_ctrls.perBankRdBursts::12              245                       # Per bank write bursts
system.mem_ctrls.perBankRdBursts::13              131                       # Per bank write bursts
system.mem_ctrls.perBankRdBursts::14              191                       # Per bank write bursts
system.mem_ctrls.perBankRdBursts::15              137                       # Per bank write bursts
system.mem_ctrls.perBankRdBursts::16              235                       # Per bank write bursts
system.mem_ctrls.perBankRdBursts::17                0                       # Per bank write bursts
system.mem_ctrls.perBankRdBursts::18                0                       # Per bank write bursts
system.mem_ctrls.perBankRdBursts::19               12                       # Per bank write bursts
system.mem_ctrls.perBankRdBursts::20                7                       # Per bank write bursts
system.mem_ctrls.perBankRdBursts::21                0                       # Per bank write bursts
system.mem_ctrls.perBankRdBursts::22               22                       # Per bank write bursts
system.mem_ctrls.perBankRdBursts::23               10                       # Per bank write bursts
system.mem_ctrls.perBankRdBursts::24                0                       # Per bank write bursts
system.mem_ctrls.perBankRdBursts::25                3                       # Per bank write bursts
system.mem_ctrls.perBankRdBursts::26                0                       # Per bank write bursts
system.mem_ctrls.perBankRdBursts::27                5                       # Per bank write bursts
system.mem_ctrls.perBankRdBursts::28              130                       # Per bank write bursts
system.mem_ctrls.perBankRdBursts::29              156                       # Per bank write bursts
system.mem_ctrls.perBankRdBursts::30              242                       # Per bank write bursts
system.mem_ctrls.perBankRdBursts::31              192                       # Per bank write bursts
system.mem_ctrls.perBankWrBursts::0               100                       # Per bank write bursts
system.mem_ctrls.perBankWrBursts::1                 0                       # Per bank write bursts
system.mem_ctrls.perBankWrBursts::2                 9                       # Per bank write bursts
system.mem_ctrls.perBankWrBursts::3                 0                       # Per bank write bursts
system.mem_ctrls.perBankWrBursts::4                 0                       # Per bank write bursts
system.mem_ctrls.perBankWrBursts::5                 7                       # Per bank write bursts
system.mem_ctrls.perBankWrBursts::6                23                       # Per bank write bursts
system.mem_ctrls.perBankWrBursts::7                 8                       # Per bank write bursts
system.mem_ctrls.perBankWrBursts::8                 5                       # Per bank write bursts
system.mem_ctrls.perBankWrBursts::9                55                       # Per bank write bursts
system.mem_ctrls.perBankWrBursts::10              117                       # Per bank write bursts
system.mem_ctrls.perBankWrBursts::11               78                       # Per bank write bursts
system.mem_ctrls.perBankWrBursts::12              127                       # Per bank write bursts
system.mem_ctrls.perBankWrBursts::13               22                       # Per bank write bursts
system.mem_ctrls.perBankWrBursts::14               56                       # Per bank write bursts
system.mem_ctrls.perBankWrBursts::15                9                       # Per bank write bursts
system.mem_ctrls.perBankWrBursts::16              115                       # Per bank write bursts
system.mem_ctrls.perBankWrBursts::17                0                       # Per bank write bursts
system.mem_ctrls.perBankWrBursts::18                0                       # Per bank write bursts
system.mem_ctrls.perBankWrBursts::19                4                       # Per bank write bursts
system.mem_ctrls.perBankWrBursts::20                0                       # Per bank write bursts
system.mem_ctrls.perBankWrBursts::21                0                       # Per bank write bursts
system.mem_ctrls.perBankWrBursts::22                0                       # Per bank write bursts
system.mem_ctrls.perBankWrBursts::23                0                       # Per bank write bursts
system.mem_ctrls.perBankWrBursts::24                0                       # Per bank write bursts
system.mem_ctrls.perBankWrBursts::25                0                       # Per bank write bursts
system.mem_ctrls.perBankWrBursts::26                0                       # Per bank write bursts
system.mem_ctrls.perBankWrBursts::27                3                       # Per bank write bursts
system.mem_ctrls.perBankWrBursts::28               64                       # Per bank write bursts
system.mem_ctrls.perBankWrBursts::29               25                       # Per bank write bursts
system.mem_ctrls.perBankWrBursts::30               79                       # Per bank write bursts
system.mem_ctrls.perBankWrBursts::31              130                       # Per bank write bursts
system.mem_ctrls.avgRdQLen                       1.47                       # Average read queue length when enqueuing
system.mem_ctrls.avgWrQLen                      52.87                       # Average write queue length when enqueuing
system.mem_ctrls.totQLat                     33170450                       # Total ticks spent queuing
system.mem_ctrls.totBusLat                    8556576                       # Total ticks spent in databus transfers
system.mem_ctrls.totMemAccLat                78089906                       # Total ticks spent from burst creation until serviced by the DRAM
system.mem_ctrls.avgQLat                     12916.84                       # Average queueing delay per DRAM burst
system.mem_ctrls.avgBusLat                    3332.00                       # Average bus latency per DRAM burst
system.mem_ctrls.avgMemAccLat                30408.84                       # Average memory access latency per DRAM burst
system.mem_ctrls.numRdRetry                         0                       # Number of times read queue was full causing retry
system.mem_ctrls.numWrRetry                         0                       # Number of times write queue was full causing retry
system.mem_ctrls.readRowHits                     2238                       # Number of row buffer hits during reads
system.mem_ctrls.writeRowHits                     920                       # Number of row buffer hits during writes
system.mem_ctrls.readRowHitRate                 87.15                       # Row buffer hit rate for reads
system.mem_ctrls.writeRowHitRate                84.25                       # Row buffer hit rate for writes
system.mem_ctrls.readPktSize::0                     0                       # Read request sizes (log2)
system.mem_ctrls.readPktSize::1                     0                       # Read request sizes (log2)
system.mem_ctrls.readPktSize::2                     0                       # Read request sizes (log2)
system.mem_ctrls.readPktSize::3                     0                       # Read request sizes (log2)
system.mem_ctrls.readPktSize::4                     0                       # Read request sizes (log2)
system.mem_ctrls.readPktSize::5                     0                       # Read request sizes (log2)
system.mem_ctrls.readPktSize::6                  2686                       # Read request sizes (log2)
system.mem_ctrls.writePktSize::0                    0                       # Write request sizes (log2)
system.mem_ctrls.writePktSize::1                    0                       # Write request sizes (log2)
system.mem_ctrls.writePktSize::2                    0                       # Write request sizes (log2)
system.mem_ctrls.writePktSize::3                    0                       # Write request sizes (log2)
system.mem_ctrls.writePktSize::4                    0                       # Write request sizes (log2)
system.mem_ctrls.writePktSize::5                    0                       # Write request sizes (log2)
system.mem_ctrls.writePktSize::6                 1099                       # Write request sizes (log2)
system.mem_ctrls.rdQLenPdf::0                    2165                       # What read queue length does an incoming req see
system.mem_ctrls.rdQLenPdf::1                     360                       # What read queue length does an incoming req see
system.mem_ctrls.rdQLenPdf::2                      37                       # What read queue length does an incoming req see
system.mem_ctrls.rdQLenPdf::3                       6                       # What read queue length does an incoming req see
system.mem_ctrls.rdQLenPdf::4                       0                       # What read queue length does an incoming req see
system.mem_ctrls.rdQLenPdf::5                       0                       # What read queue length does an incoming req see
system.mem_ctrls.rdQLenPdf::6                       0                       # What read queue length does an incoming req see
system.mem_ctrls.rdQLenPdf::7                       0                       # What read queue length does an incoming req see
system.mem_ctrls.rdQLenPdf::8                       0                       # What read queue length does an incoming req see
system.mem_ctrls.rdQLenPdf::9                       0                       # What read queue length does an incoming req see
system.mem_ctrls.rdQLenPdf::10                      0                       # What read queue length does an incoming req see
system.mem_ctrls.rdQLenPdf::11                      0                       # What read queue length does an incoming req see
system.mem_ctrls.rdQLenPdf::12                      0                       # What read queue length does an incoming req see
system.mem_ctrls.rdQLenPdf::13                      0                       # What read queue length does an incoming req see
system.mem_ctrls.rdQLenPdf::14                      0                       # What read queue length does an incoming req see
system.mem_ctrls.rdQLenPdf::15                      0                       # What read queue length does an incoming req see
system.mem_ctrls.rdQLenPdf::16                      0                       # What read queue length does an incoming req see
system.mem_ctrls.rdQLenPdf::17                      0                       # What read queue length does an incoming req see
system.mem_ctrls.rdQLenPdf::18                      0                       # What read queue length does an incoming req see
system.mem_ctrls.rdQLenPdf::19                      0                       # What read queue length does an incoming req see
system.mem_ctrls.rdQLenPdf::20                      0                       # What read queue length does an incoming req see
system.mem_ctrls.rdQLenPdf::21                      0                       # What read queue length does an incoming req see
system.mem_ctrls.rdQLenPdf::22                      0                       # What read queue length does an incoming req see
system.mem_ctrls.rdQLenPdf::23                      0                       # What read queue length does an incoming req see
system.mem_ctrls.rdQLenPdf::24                      0                       # What read queue length does an incoming req see
system.mem_ctrls.rdQLenPdf::25                      0                       # What read queue length does an incoming req see
system.mem_ctrls.rdQLenPdf::26                      0                       # What read queue length does an incoming req see
system.mem_ctrls.rdQLenPdf::27                      0                       # What read queue length does an incoming req see
system.mem_ctrls.rdQLenPdf::28                      0                       # What read queue length does an incoming req see
system.mem_ctrls.rdQLenPdf::29                      0                       # What read queue length does an incoming req see
system.mem_ctrls.rdQLenPdf::30                      0                       # What read queue length does an incoming req see
system.mem_ctrls.rdQLenPdf::31                      0                       # What read queue length does an incoming req see
system.mem_ctrls.rdQLenPdf::32                      0                       # What read queue length does an incoming req see
system.mem_ctrls.rdQLenPdf::33                      0                       # What read queue length does an incoming req see
system.mem_ctrls.rdQLenPdf::34                      0                       # What read queue length does an incoming req see
system.mem_ctrls.rdQLenPdf::35                      0                       # What read queue length does an incoming req see
system.mem_ctrls.rdQLenPdf::36                      0                       # What read queue length does an incoming req see
system.mem_ctrls.rdQLenPdf::37                      0                       # What read queue length does an incoming req see
system.mem_ctrls.rdQLenPdf::38                      0                       # What read queue length does an incoming req see
system.mem_ctrls.rdQLenPdf::39                      0                       # What read queue length does an incoming req see
system.mem_ctrls.rdQLenPdf::40                      0                       # What read queue length does an incoming req see
system.mem_ctrls.rdQLenPdf::41                      0                       # What read queue length does an incoming req see
system.mem_ctrls.rdQLenPdf::42                      0                       # What read queue length does an incoming req see
system.mem_ctrls.rdQLenPdf::43                      0                       # What read queue length does an incoming req see
system.mem_ctrls.rdQLenPdf::44                      0                       # What read queue length does an incoming req see
system.mem_ctrls.rdQLenPdf::45                      0                       # What read queue length does an incoming req see
system.mem_ctrls.rdQLenPdf::46                      0                       # What read queue length does an incoming req see
system.mem_ctrls.rdQLenPdf::47                      0                       # What read queue length does an incoming req see
system.mem_ctrls.rdQLenPdf::48                      0                       # What read queue length does an incoming req see
system.mem_ctrls.rdQLenPdf::49                      0                       # What read queue length does an incoming req see
system.mem_ctrls.rdQLenPdf::50                      0                       # What read queue length does an incoming req see
system.mem_ctrls.rdQLenPdf::51                      0                       # What read queue length does an incoming req see
system.mem_ctrls.rdQLenPdf::52                      0                       # What read queue length does an incoming req see
system.mem_ctrls.rdQLenPdf::53                      0                       # What read queue length does an incoming req see
system.mem_ctrls.rdQLenPdf::54                      0                       # What read queue length does an incoming req see
system.mem_ctrls.rdQLenPdf::55                      0                       # What read queue length does an incoming req see
system.mem_ctrls.rdQLenPdf::56                      0                       # What read queue length does an incoming req see
system.mem_ctrls.rdQLenPdf::57                      0                       # What read queue length does an incoming req see
system.mem_ctrls.rdQLenPdf::58                      0                       # What read queue length does an incoming req see
system.mem_ctrls.rdQLenPdf::59                      0                       # What read queue length does an incoming req see
system.mem_ctrls.rdQLenPdf::60                      0                       # What read queue length does an incoming req see
system.mem_ctrls.rdQLenPdf::61                      0                       # What read queue length does an incoming req see
system.mem_ctrls.rdQLenPdf::62                      0                       # What read queue length does an incoming req see
system.mem_ctrls.rdQLenPdf::63                      0                       # What read queue length does an incoming req see
system.mem_ctrls.wrQLenPdf::0                       1                       # What write queue length does an incoming req see
system.mem_ctrls.wrQLenPdf::1                       1                       # What write queue length does an incoming req see
system.mem_ctrls.wrQLenPdf::2                       1                       # What write queue length does an incoming req see
system.mem_ctrls.wrQLenPdf::3                       1                       # What write queue length does an incoming req see
system.mem_ctrls.wrQLenPdf::4                       1                       # What write queue length does an incoming req see
system.mem_ctrls.wrQLenPdf::5                       1                       # What write queue length does an incoming req see
system.mem_ctrls.wrQLenPdf::6                       1                       # What write queue length does an incoming req see
system.mem_ctrls.wrQLenPdf::7                       1                       # What write queue length does an incoming req see
system.mem_ctrls.wrQLenPdf::8                       1                       # What write queue length does an incoming req see
system.mem_ctrls.wrQLenPdf::9                       1                       # What write queue length does an incoming req see
system.mem_ctrls.wrQLenPdf::10                      1                       # What write queue length does an incoming req see
system.mem_ctrls.wrQLenPdf::11                      1                       # What write queue length does an incoming req see
system.mem_ctrls.wrQLenPdf::12                      1                       # What write queue length does an incoming req see
system.mem_ctrls.wrQLenPdf::13                      1                       # What write queue length does an incoming req see
system.mem_ctrls.wrQLenPdf::14                      1                       # What write queue length does an incoming req see
system.mem_ctrls.wrQLenPdf::15                      1                       # What write queue length does an incoming req see
system.mem_ctrls.wrQLenPdf::16                      1                       # What write queue length does an incoming req see
system.mem_ctrls.wrQLenPdf::17                      1                       # What write queue length does an incoming req see
system.mem_ctrls.wrQLenPdf::18                      1                       # What write queue length does an incoming req see
system.mem_ctrls.wrQLenPdf::19                      1                       # What write queue length does an incoming req see
system.mem_ctrls.wrQLenPdf::20                      1                       # What write queue length does an incoming req see
system.mem_ctrls.wrQLenPdf::21                      1                       # What write queue length does an incoming req see
system.mem_ctrls.wrQLenPdf::22                      1                       # What write queue length does an incoming req see
system.mem_ctrls.wrQLenPdf::23                      1                       # What write queue length does an incoming req see
system.mem_ctrls.wrQLenPdf::24                      1                       # What write queue length does an incoming req see
system.mem_ctrls.wrQLenPdf::25                      1                       # What write queue length does an incoming req see
system.mem_ctrls.wrQLenPdf::26                      1                       # What write queue length does an incoming req see
system.mem_ctrls.wrQLenPdf::27                      1                       # What write queue length does an incoming req see
system.mem_ctrls.wrQLenPdf::28                      1                       # What write queue length does an incoming req see
system.mem_ctrls.wrQLenPdf::29                      1                       # What write queue length does an incoming req see
system.mem_ctrls.wrQLenPdf::30                      1                       # What write queue length does an incoming req see
system.mem_ctrls.wrQLenPdf::31                      1                       # What write queue length does an incoming req see
system.mem_ctrls.wrQLenPdf::32                      1                       # What write queue length does an incoming req see
system.mem_ctrls.wrQLenPdf::33                      1                       # What write queue length does an incoming req see
system.mem_ctrls.wrQLenPdf::34                      1                       # What write queue length does an incoming req see
system.mem_ctrls.wrQLenPdf::35                      1                       # What write queue length does an incoming req see
system.mem_ctrls.wrQLenPdf::36                      1                       # What write queue length does an incoming req see
system.mem_ctrls.wrQLenPdf::37                      1                       # What write queue length does an incoming req see
system.mem_ctrls.wrQLenPdf::38                      1                       # What write queue length does an incoming req see
system.mem_ctrls.wrQLenPdf::39                      1                       # What write queue length does an incoming req see
system.mem_ctrls.wrQLenPdf::40                      1                       # What write queue length does an incoming req see
system.mem_ctrls.wrQLenPdf::41                      1                       # What write queue length does an incoming req see
system.mem_ctrls.wrQLenPdf::42                      1                       # What write queue length does an incoming req see
system.mem_ctrls.wrQLenPdf::43                      1                       # What write queue length does an incoming req see
system.mem_ctrls.wrQLenPdf::44                      1                       # What write queue length does an incoming req see
system.mem_ctrls.wrQLenPdf::45                      1                       # What write queue length does an incoming req see
system.mem_ctrls.wrQLenPdf::46                      1                       # What write queue length does an incoming req see
system.mem_ctrls.wrQLenPdf::47                     30                       # What write queue length does an incoming req see
system.mem_ctrls.wrQLenPdf::48                     30                       # What write queue length does an incoming req see
system.mem_ctrls.wrQLenPdf::49                     52                       # What write queue length does an incoming req see
system.mem_ctrls.wrQLenPdf::50                     59                       # What write queue length does an incoming req see
system.mem_ctrls.wrQLenPdf::51                     64                       # What write queue length does an incoming req see
system.mem_ctrls.wrQLenPdf::52                     63                       # What write queue length does an incoming req see
system.mem_ctrls.wrQLenPdf::53                     62                       # What write queue length does an incoming req see
system.mem_ctrls.wrQLenPdf::54                     64                       # What write queue length does an incoming req see
system.mem_ctrls.wrQLenPdf::55                     63                       # What write queue length does an incoming req see
system.mem_ctrls.wrQLenPdf::56                     63                       # What write queue length does an incoming req see
system.mem_ctrls.wrQLenPdf::57                     63                       # What write queue length does an incoming req see
system.mem_ctrls.wrQLenPdf::58                     65                       # What write queue length does an incoming req see
system.mem_ctrls.wrQLenPdf::59                     62                       # What write queue length does an incoming req see
system.mem_ctrls.wrQLenPdf::60                     61                       # What write queue length does an incoming req see
system.mem_ctrls.wrQLenPdf::61                     61                       # What write queue length does an incoming req see
system.mem_ctrls.wrQLenPdf::62                     61                       # What write queue length does an incoming req see
system.mem_ctrls.wrQLenPdf::63                     61                       # What write queue length does an incoming req see
system.mem_ctrls.wrQLenPdf::64                     61                       # What write queue length does an incoming req see
system.mem_ctrls.wrQLenPdf::65                      0                       # What write queue length does an incoming req see
system.mem_ctrls.wrQLenPdf::66                      0                       # What write queue length does an incoming req see
system.mem_ctrls.wrQLenPdf::67                      0                       # What write queue length does an incoming req see
system.mem_ctrls.wrQLenPdf::68                      0                       # What write queue length does an incoming req see
system.mem_ctrls.wrQLenPdf::69                      0                       # What write queue length does an incoming req see
system.mem_ctrls.wrQLenPdf::70                      0                       # What write queue length does an incoming req see
system.mem_ctrls.wrQLenPdf::71                      0                       # What write queue length does an incoming req see
system.mem_ctrls.wrQLenPdf::72                      0                       # What write queue length does an incoming req see
system.mem_ctrls.wrQLenPdf::73                      0                       # What write queue length does an incoming req see
system.mem_ctrls.wrQLenPdf::74                      0                       # What write queue length does an incoming req see
system.mem_ctrls.wrQLenPdf::75                      0                       # What write queue length does an incoming req see
system.mem_ctrls.wrQLenPdf::76                      0                       # What write queue length does an incoming req see
system.mem_ctrls.wrQLenPdf::77                      0                       # What write queue length does an incoming req see
system.mem_ctrls.wrQLenPdf::78                      0                       # What write queue length does an incoming req see
system.mem_ctrls.wrQLenPdf::79                      0                       # What write queue length does an incoming req see
system.mem_ctrls.wrQLenPdf::80                      0                       # What write queue length does an incoming req see
system.mem_ctrls.wrQLenPdf::81                      0                       # What write queue length does an incoming req see
system.mem_ctrls.wrQLenPdf::82                      0                       # What write queue length does an incoming req see
system.mem_ctrls.wrQLenPdf::83                      0                       # What write queue length does an incoming req see
system.mem_ctrls.wrQLenPdf::84                      0                       # What write queue length does an incoming req see
system.mem_ctrls.wrQLenPdf::85                      0                       # What write queue length does an incoming req see
system.mem_ctrls.wrQLenPdf::86                      0                       # What write queue length does an incoming req see
system.mem_ctrls.wrQLenPdf::87                      0                       # What write queue length does an incoming req see
system.mem_ctrls.wrQLenPdf::88                      0                       # What write queue length does an incoming req see
system.mem_ctrls.wrQLenPdf::89                      0                       # What write queue length does an incoming req see
system.mem_ctrls.wrQLenPdf::90                      0                       # What write queue length does an incoming req see
system.mem_ctrls.wrQLenPdf::91                      0                       # What write queue length does an incoming req see
system.mem_ctrls.wrQLenPdf::92                      0                       # What write queue length does an incoming req see
system.mem_ctrls.wrQLenPdf::93                      0                       # What write queue length does an incoming req see
system.mem_ctrls.wrQLenPdf::94                      0                       # What write queue length does an incoming req see
system.mem_ctrls.wrQLenPdf::95                      0                       # What write queue length does an incoming req see
system.mem_ctrls.wrQLenPdf::96                      0                       # What write queue length does an incoming req see
system.mem_ctrls.wrQLenPdf::97                      0                       # What write queue length does an incoming req see
system.mem_ctrls.wrQLenPdf::98                      0                       # What write queue length does an incoming req see
system.mem_ctrls.wrQLenPdf::99                      0                       # What write queue length does an incoming req see
system.mem_ctrls.wrQLenPdf::100                     0                       # What write queue length does an incoming req see
system.mem_ctrls.wrQLenPdf::101                     0                       # What write queue length does an incoming req see
system.mem_ctrls.wrQLenPdf::102                     0                       # What write queue length does an incoming req see
system.mem_ctrls.wrQLenPdf::103                     0                       # What write queue length does an incoming req see
system.mem_ctrls.wrQLenPdf::104                     0                       # What write queue length does an incoming req see
system.mem_ctrls.wrQLenPdf::105                     0                       # What write queue length does an incoming req see
system.mem_ctrls.wrQLenPdf::106                     0                       # What write queue length does an incoming req see
system.mem_ctrls.wrQLenPdf::107                     0                       # What write queue length does an incoming req see
system.mem_ctrls.wrQLenPdf::108                     0                       # What write queue length does an incoming req see
system.mem_ctrls.wrQLenPdf::109                     0                       # What write queue length does an incoming req see
system.mem_ctrls.wrQLenPdf::110                     0                       # What write queue length does an incoming req see
system.mem_ctrls.wrQLenPdf::111                     0                       # What write queue length does an incoming req see
system.mem_ctrls.wrQLenPdf::112                     0                       # What write queue length does an incoming req see
system.mem_ctrls.wrQLenPdf::113                     0                       # What write queue length does an incoming req see
system.mem_ctrls.wrQLenPdf::114                     0                       # What write queue length does an incoming req see
system.mem_ctrls.wrQLenPdf::115                     0                       # What write queue length does an incoming req see
system.mem_ctrls.wrQLenPdf::116                     0                       # What write queue length does an incoming req see
system.mem_ctrls.wrQLenPdf::117                     0                       # What write queue length does an incoming req see
system.mem_ctrls.wrQLenPdf::118                     0                       # What write queue length does an incoming req see
system.mem_ctrls.wrQLenPdf::119                     0                       # What write queue length does an incoming req see
system.mem_ctrls.wrQLenPdf::120                     0                       # What write queue length does an incoming req see
system.mem_ctrls.wrQLenPdf::121                     0                       # What write queue length does an incoming req see
system.mem_ctrls.wrQLenPdf::122                     0                       # What write queue length does an incoming req see
system.mem_ctrls.wrQLenPdf::123                     0                       # What write queue length does an incoming req see
system.mem_ctrls.wrQLenPdf::124                     0                       # What write queue length does an incoming req see
system.mem_ctrls.wrQLenPdf::125                     0                       # What write queue length does an incoming req see
system.mem_ctrls.wrQLenPdf::126                     0                       # What write queue length does an incoming req see
system.mem_ctrls.wrQLenPdf::127                     0                       # What write queue length does an incoming req see
system.mem_ctrls.bytesPerActivate::samples          436                       # Bytes accessed per row activation
system.mem_ctrls.bytesPerActivate::mean    521.981651                       # Bytes accessed per row activation
system.mem_ctrls.bytesPerActivate::gmean   368.744627                       # Bytes accessed per row activation
system.mem_ctrls.bytesPerActivate::stdev   348.108319                       # Bytes accessed per row activation
system.mem_ctrls.bytesPerActivate::0-127           62     14.22%     14.22% # Bytes accessed per row activation
system.mem_ctrls.bytesPerActivate::128-255           70     16.06%     30.28% # Bytes accessed per row activation
system.mem_ctrls.bytesPerActivate::256-383           44     10.09%     40.37% # Bytes accessed per row activation
system.mem_ctrls.bytesPerActivate::384-511           22      5.05%     45.41% # Bytes accessed per row activation
system.mem_ctrls.bytesPerActivate::512-639           37      8.49%     53.90% # Bytes accessed per row activation
system.mem_ctrls.bytesPerActivate::640-767           77     17.66%     71.56% # Bytes accessed per row activation
system.mem_ctrls.bytesPerActivate::768-895           21      4.82%     76.38% # Bytes accessed per row activation
system.mem_ctrls.bytesPerActivate::896-1023           11      2.52%     78.90% # Bytes accessed per row activation
system.mem_ctrls.bytesPerActivate::1024-1151           92     21.10%    100.00% # Bytes accessed per row activation
system.mem_ctrls.bytesPerActivate::total          436                       # Bytes accessed per row activation
system.mem_ctrls.rdPerTurnAround::samples           61                       # Reads before turning the bus around for writes
system.mem_ctrls.rdPerTurnAround::mean      41.950820                       # Reads before turning the bus around for writes
system.mem_ctrls.rdPerTurnAround::gmean     21.672627                       # Reads before turning the bus around for writes
system.mem_ctrls.rdPerTurnAround::stdev    135.447705                       # Reads before turning the bus around for writes
system.mem_ctrls.rdPerTurnAround::0-31             49     80.33%     80.33% # Reads before turning the bus around for writes
system.mem_ctrls.rdPerTurnAround::32-63             7     11.48%     91.80% # Reads before turning the bus around for writes
system.mem_ctrls.rdPerTurnAround::64-95             2      3.28%     95.08% # Reads before turning the bus around for writes
system.mem_ctrls.rdPerTurnAround::96-127            2      3.28%     98.36% # Reads before turning the bus around for writes
system.mem_ctrls.rdPerTurnAround::1056-1087            1      1.64%    100.00% # Reads before turning the bus around for writes
system.mem_ctrls.rdPerTurnAround::total            61                       # Reads before turning the bus around for writes
system.mem_ctrls.wrPerTurnAround::samples           61                       # Writes before turning the bus around for reads
system.mem_ctrls.wrPerTurnAround::mean      16.983607                       # Writes before turning the bus around for reads
system.mem_ctrls.wrPerTurnAround::gmean     16.953328                       # Writes before turning the bus around for reads
system.mem_ctrls.wrPerTurnAround::stdev      1.024562                       # Writes before turning the bus around for reads
system.mem_ctrls.wrPerTurnAround::16               31     50.82%     50.82% # Writes before turning the bus around for reads
system.mem_ctrls.wrPerTurnAround::17                1      1.64%     52.46% # Writes before turning the bus around for reads
system.mem_ctrls.wrPerTurnAround::18               28     45.90%     98.36% # Writes before turning the bus around for reads
system.mem_ctrls.wrPerTurnAround::19                1      1.64%    100.00% # Writes before turning the bus around for reads
system.mem_ctrls.wrPerTurnAround::total            61                       # Writes before turning the bus around for reads
system.mem_ctrls.bytesReadDRAM                 164352                       # Total number of bytes read from DRAM
system.mem_ctrls.bytesReadWrQ                    7552                       # Total number of bytes read from write queue
system.mem_ctrls.bytesWritten                   66304                       # Total number of bytes written to DRAM
system.mem_ctrls.bytesReadSys                  171904                       # Total read bytes from the system interface side
system.mem_ctrls.bytesWrittenSys                70336                       # Total written bytes from the system interface side
system.mem_ctrls.avgRdBW                        53.53                       # Average DRAM read bandwidth in MiByte/s
system.mem_ctrls.avgWrBW                        21.60                       # Average achieved write bandwidth in MiByte/s
system.mem_ctrls.avgRdBWSys                     55.99                       # Average system read bandwidth in MiByte/s
system.mem_ctrls.avgWrBWSys                     22.91                       # Average system write bandwidth in MiByte/s
system.mem_ctrls.peakBW                      19207.00                       # Theoretical peak bandwidth in MiByte/s
system.mem_ctrls.busUtil                         0.39                       # Data bus utilization in percentage
system.mem_ctrls.busUtilRead                     0.28                       # Data bus utilization in percentage for reads
system.mem_ctrls.busUtilWrite                    0.11                       # Data bus utilization in percentage for writes
system.mem_ctrls.totGap                    3070032500                       # Total gap between requests
system.mem_ctrls.avgGap                     811105.02                       # Average gap between requests
system.mem_ctrls.masterReadBytes::.cpu.inst        24448                       # Per-master bytes read from memory
system.mem_ctrls.masterReadBytes::.cpu.data       139904                       # Per-master bytes read from memory
system.mem_ctrls.masterWriteBytes::.writebacks        66304                       # Per-master bytes write to memory
system.mem_ctrls.masterReadRate::.cpu.inst 7963337.637796147726                       # Per-master bytes read from memory rate (Bytes/sec)
system.mem_ctrls.masterReadRate::.cpu.data 45570303.864456489682                       # Per-master bytes read from memory rate (Bytes/sec)
system.mem_ctrls.masterWriteRate::.writebacks 21596905.216640859842                       # Per-master bytes write to memory rate (Bytes/sec)
system.mem_ctrls.masterReadAccesses::.cpu.inst          407                       # Per-master read serviced memory accesses
system.mem_ctrls.masterReadAccesses::.cpu.data         2279                       # Per-master read serviced memory accesses
system.mem_ctrls.masterWriteAccesses::.writebacks         1099                       # Per-master write serviced memory accesses
system.mem_ctrls.masterReadTotalLat::.cpu.inst      9159730                       # Per-master read total memory access latency
system.mem_ctrls.masterReadTotalLat::.cpu.data     68930176                       # Per-master read total memory access latency
system.mem_ctrls.masterWriteTotalLat::.writebacks 159442665576                       # Per-master write total memory access latency
system.mem_ctrls.masterReadAvgLat::.cpu.inst     22505.48                       # Per-master read average memory access latency
system.mem_ctrls.masterReadAvgLat::.cpu.data     30245.80                       # Per-master read average memory access latency
system.mem_ctrls.masterWriteAvgLat::.writebacks 145079768.49                       # Per-master write average memory access latency
system.mem_ctrls.pageHitRate                    86.28                       # Row buffer hit rate, read and write combined
system.mem_ctrls.rank1.actEnergy         260415.792000                       # Energy for activate commands per rank (pJ)
system.mem_ctrls.rank1.preEnergy         451475.337600                       # Energy for precharge commands per rank (pJ)
system.mem_ctrls.rank1.readEnergy        2781303.033600                       # Energy for read commands per rank (pJ)
system.mem_ctrls.rank1.writeEnergy       990803.520000                       # Energy for write commands per rank (pJ)
system.mem_ctrls.rank1.refreshEnergy     266287086.542401                       # Energy for refresh commands per rank (pJ)
system.mem_ctrls.rank1.actBackEnergy     315946674.758401                       # Energy for active background per rank (pJ)
system.mem_ctrls.rank1.preBackEnergy     783955316.390403                       # Energy for precharge background per rank (pJ)
system.mem_ctrls.rank1.actPowerDownEnergy            0                       # Energy for active power-down per rank (pJ)
system.mem_ctrls.rank1.prePowerDownEnergy            0                       # Energy for precharge power-down per rank (pJ)
system.mem_ctrls.rank1.selfRefreshEnergy            0                       # Energy for self refresh per rank (pJ)
system.mem_ctrls.rank1.totalEnergy       1370673075.374399                       # Total energy per rank (pJ)
system.mem_ctrls.rank1.averagePower        446.463207                       # Core power per rank (mW)
system.mem_ctrls.rank1.totalIdleTime                0                       # Total Idle time Per DRAM Rank
system.mem_ctrls.rank1.memoryStateTime::IDLE   2395314640                       # Time in different power states
system.mem_ctrls.rank1.memoryStateTime::REF    137900000                       # Time in different power states
system.mem_ctrls.rank1.memoryStateTime::SREF            0                       # Time in different power states
system.mem_ctrls.rank1.memoryStateTime::PRE_PDN            0                       # Time in different power states
system.mem_ctrls.rank1.memoryStateTime::ACT    536854860                       # Time in different power states
system.mem_ctrls.rank1.memoryStateTime::ACT_PDN            0                       # Time in different power states
system.mem_ctrls.rank0.actEnergy         435065.904000                       # Energy for activate commands per rank (pJ)
system.mem_ctrls.rank0.preEnergy         748788.364800                       # Energy for precharge commands per rank (pJ)
system.mem_ctrls.rank0.readEnergy        4262470.329600                       # Energy for read commands per rank (pJ)
system.mem_ctrls.rank0.writeEnergy       1453178.496000                       # Energy for write commands per rank (pJ)
system.mem_ctrls.rank0.refreshEnergy     266287086.542401                       # Energy for refresh commands per rank (pJ)
system.mem_ctrls.rank0.actBackEnergy     311752647.040802                       # Energy for active background per rank (pJ)
system.mem_ctrls.rank0.preBackEnergy     786850685.779204                       # Energy for precharge background per rank (pJ)
system.mem_ctrls.rank0.actPowerDownEnergy            0                       # Energy for active power-down per rank (pJ)
[...]
system.cpu.icache.tags.occ_percent::total     0.507484                       # Average percentage of cache occupancy
system.cpu.icache.tags.occ_task_id_blocks::1024          299                       # Occupied blocks per task id
system.cpu.icache.tags.age_task_id_blocks_1024::0           64                       # Occupied blocks per task id
system.cpu.icache.tags.age_task_id_blocks_1024::3          235                       # Occupied blocks per task id
system.cpu.icache.tags.occ_task_id_percent::1024     0.583984                       # Percentage of cache occupancy per task id
system.cpu.icache.tags.tag_accesses           3144695                       # Number of tag accesses
system.cpu.icache.tags.data_accesses          3144695                       # Number of data accesses
system.cpu.dtb.walker.pwrStateResidencyTicks::UNDEFINED   3070069500                       # Cumulative time (in ticks) in various power states
system.cpu.dtb.stage2_mmu.stage2_tlb.walker.pwrStateResidencyTicks::UNDEFINED   3070069500                       # Cumulative time (in ticks) in various power states
system.cpu.dcache.pwrStateResidencyTicks::UNDEFINED   3070069500                       # Cumulative time (in ticks) in various power states
system.cpu.dcache.demand_hits::.cpu.data      1816057                       # number of demand (read+write) hits
system.cpu.dcache.demand_hits::total          1816057                       # number of demand (read+write) hits
system.cpu.dcache.overall_hits::.cpu.data      1822199                       # number of overall hits
system.cpu.dcache.overall_hits::total         1822199                       # number of overall hits
system.cpu.dcache.demand_misses::.cpu.data         2912                       # number of demand (read+write) misses
system.cpu.dcache.demand_misses::total           2912                       # number of demand (read+write) misses
system.cpu.dcache.overall_misses::.cpu.data         3243                       # number of overall misses
system.cpu.dcache.overall_misses::total          3243                       # number of overall misses
system.cpu.dcache.demand_miss_latency::.cpu.data    173676999                       # number of demand (read+write) miss cycles
system.cpu.dcache.demand_miss_latency::total    173676999                       # number of demand (read+write) miss cycles
system.cpu.dcache.overall_miss_latency::.cpu.data    173676999                       # number of overall miss cycles
system.cpu.dcache.overall_miss_latency::total    173676999                       # number of overall miss cycles
system.cpu.dcache.demand_accesses::.cpu.data      1818969                       # number of demand (read+write) accesses
system.cpu.dcache.demand_accesses::total      1818969                       # number of demand (read+write) accesses
system.cpu.dcache.overall_accesses::.cpu.data      1825442                       # number of overall (read+write) accesses
system.cpu.dcache.overall_accesses::total      1825442                       # number of overall (read+write) accesses
system.cpu.dcache.demand_miss_rate::.cpu.data     0.001601                       # miss rate for demand accesses
system.cpu.dcache.demand_miss_rate::total     0.001601                       # miss rate for demand accesses
system.cpu.dcache.overall_miss_rate::.cpu.data     0.001777                       # miss rate for overall accesses
system.cpu.dcache.overall_miss_rate::total     0.001777                       # miss rate for overall accesses
system.cpu.dcache.demand_avg_miss_latency::.cpu.data 59641.826580                       # average overall miss latency
system.cpu.dcache.demand_avg_miss_latency::total 59641.826580                       # average overall miss latency
system.cpu.dcache.overall_avg_miss_latency::.cpu.data 53554.424607                       # average overall miss latency
system.cpu.dcache.overall_avg_miss_latency::total 53554.424607                       # average overall miss latency
system.cpu.dcache.blocked_cycles::no_mshrs         1613                       # number of cycles access was blocked
system.cpu.dcache.blocked_cycles::no_targets            0                       # number of cycles access was blocked
system.cpu.dcache.blocked::no_mshrs                23                       # number of cycles access was blocked
system.cpu.dcache.blocked::no_targets               0                       # number of cycles access was blocked
system.cpu.dcache.avg_blocked_cycles::no_mshrs    70.130435                       # average number of cycles each access was blocked
system.cpu.dcache.avg_blocked_cycles::no_targets          nan                       # average number of cycles each access was blocked
system.cpu.dcache.writebacks::.writebacks          993                       # number of writebacks
system.cpu.dcache.writebacks::total               993                       # number of writebacks
system.cpu.dcache.demand_mshr_hits::.cpu.data          963                       # number of demand (read+write) MSHR hits
system.cpu.dcache.demand_mshr_hits::total          963                       # number of demand (read+write) MSHR hits
system.cpu.dcache.overall_mshr_hits::.cpu.data          963                       # number of overall MSHR hits
system.cpu.dcache.overall_mshr_hits::total          963                       # number of overall MSHR hits
system.cpu.dcache.demand_mshr_misses::.cpu.data         1949                       # number of demand (read+write) MSHR misses
system.cpu.dcache.demand_mshr_misses::total         1949                       # number of demand (read+write) MSHR misses
system.cpu.dcache.overall_mshr_misses::.cpu.data         2277                       # number of overall MSHR misses
system.cpu.dcache.overall_mshr_misses::total         2277                       # number of overall MSHR misses
system.cpu.dcache.demand_mshr_miss_latency::.cpu.data    120146000                       # number of demand (read+write) MSHR miss cycles
system.cpu.dcache.demand_mshr_miss_latency::total    120146000                       # number of demand (read+write) MSHR miss cycles
system.cpu.dcache.overall_mshr_miss_latency::.cpu.data    140168500                       # number of overall MSHR miss cycles
system.cpu.dcache.overall_mshr_miss_latency::total    140168500                       # number of overall MSHR miss cycles
system.cpu.dcache.demand_mshr_miss_rate::.cpu.data     0.001071                       # mshr miss rate for demand accesses
system.cpu.dcache.demand_mshr_miss_rate::total     0.001071                       # mshr miss rate for demand accesses
system.cpu.dcache.overall_mshr_miss_rate::.cpu.data     0.001247                       # mshr miss rate for overall accesses
system.cpu.dcache.overall_mshr_miss_rate::total     0.001247                       # mshr miss rate for overall accesses
system.cpu.dcache.demand_avg_mshr_miss_latency::.cpu.data 61644.946126                       # average overall mshr miss latency
system.cpu.dcache.demand_avg_mshr_miss_latency::total 61644.946126                       # average overall mshr miss latency
system.cpu.dcache.overall_avg_mshr_miss_latency::.cpu.data 61558.410189                       # average overall mshr miss latency
system.cpu.dcache.overall_avg_mshr_miss_latency::total 61558.410189                       # average overall mshr miss latency
system.cpu.dcache.replacements                   1255                       # number of replacements
system.cpu.dcache.ReadReq_hits::.cpu.data      1025820                       # number of ReadReq hits
system.cpu.dcache.ReadReq_hits::total         1025820                       # number of ReadReq hits
system.cpu.dcache.ReadReq_misses::.cpu.data          359                       # number of ReadReq misses
system.cpu.dcache.ReadReq_misses::total           359                       # number of ReadReq misses
system.cpu.dcache.ReadReq_miss_latency::.cpu.data     18133500                       # number of ReadReq miss cycles
system.cpu.dcache.ReadReq_miss_latency::total     18133500                       # number of ReadReq miss cycles
system.cpu.dcache.ReadReq_accesses::.cpu.data      1026179                       # number of ReadReq accesses(hits+misses)
system.cpu.dcache.ReadReq_accesses::total      1026179                       # number of ReadReq accesses(hits+misses)
system.cpu.dcache.ReadReq_miss_rate::.cpu.data     0.000350                       # miss rate for ReadReq accesses
system.cpu.dcache.ReadReq_miss_rate::total     0.000350                       # miss rate for ReadReq accesses
system.cpu.dcache.ReadReq_avg_miss_latency::.cpu.data 50511.142061                       # average ReadReq miss latency
system.cpu.dcache.ReadReq_avg_miss_latency::total 50511.142061                       # average ReadReq miss latency
system.cpu.dcache.ReadReq_mshr_hits::.cpu.data           11                       # number of ReadReq MSHR hits
system.cpu.dcache.ReadReq_mshr_hits::total           11                       # number of ReadReq MSHR hits
system.cpu.dcache.ReadReq_mshr_misses::.cpu.data          348                       # number of ReadReq MSHR misses
system.cpu.dcache.ReadReq_mshr_misses::total          348                       # number of ReadReq MSHR misses
system.cpu.dcache.ReadReq_mshr_miss_latency::.cpu.data     17278000                       # number of ReadReq MSHR miss cycles
system.cpu.dcache.ReadReq_mshr_miss_latency::total     17278000                       # number of ReadReq MSHR miss cycles
system.cpu.dcache.ReadReq_mshr_miss_rate::.cpu.data     0.000339                       # mshr miss rate for ReadReq accesses
system.cpu.dcache.ReadReq_mshr_miss_rate::total     0.000339                       # mshr miss rate for ReadReq accesses
system.cpu.dcache.ReadReq_avg_mshr_miss_latency::.cpu.data 49649.425287                       # average ReadReq mshr miss latency
system.cpu.dcache.ReadReq_avg_mshr_miss_latency::total 49649.425287                       # average ReadReq mshr miss latency
system.cpu.dcache.WriteReq_hits::.cpu.data       790237                       # number of WriteReq hits
system.cpu.dcache.WriteReq_hits::total         790237                       # number of WriteReq hits
system.cpu.dcache.WriteReq_misses::.cpu.data         2553                       # number of WriteReq misses
system.cpu.dcache.WriteReq_misses::total         2553                       # number of WriteReq misses
system.cpu.dcache.WriteReq_miss_latency::.cpu.data    155543499                       # number of WriteReq miss cycles
system.cpu.dcache.WriteReq_miss_latency::total    155543499                       # number of WriteReq miss cycles
system.cpu.dcache.WriteReq_accesses::.cpu.data       792790                       # number of WriteReq accesses(hits+misses)
system.cpu.dcache.WriteReq_accesses::total       792790                       # number of WriteReq accesses(hits+misses)
system.cpu.dcache.WriteReq_miss_rate::.cpu.data     0.003220                       # miss rate for WriteReq accesses
system.cpu.dcache.WriteReq_miss_rate::total     0.003220                       # miss rate for WriteReq accesses
system.cpu.dcache.WriteReq_avg_miss_latency::.cpu.data 60925.773208                       # average WriteReq miss latency
system.cpu.dcache.WriteReq_avg_miss_latency::total 60925.773208                       # average WriteReq miss latency
system.cpu.dcache.WriteReq_mshr_hits::.cpu.data          952                       # number of WriteReq MSHR hits
system.cpu.dcache.WriteReq_mshr_hits::total          952                       # number of WriteReq MSHR hits
system.cpu.dcache.WriteReq_mshr_misses::.cpu.data         1601                       # number of WriteReq MSHR misses
system.cpu.dcache.WriteReq_mshr_misses::total         1601                       # number of WriteReq MSHR misses
system.cpu.dcache.WriteReq_mshr_miss_latency::.cpu.data    102868000                       # number of WriteReq MSHR miss cycles
system.cpu.dcache.WriteReq_mshr_miss_latency::total    102868000                       # number of WriteReq MSHR miss cycles
system.cpu.dcache.WriteReq_mshr_miss_rate::.cpu.data     0.002019                       # mshr miss rate for WriteReq accesses
system.cpu.dcache.WriteReq_mshr_miss_rate::total     0.002019                       # mshr miss rate for WriteReq accesses
system.cpu.dcache.WriteReq_avg_mshr_miss_latency::.cpu.data 64252.342286                       # average WriteReq mshr miss latency
system.cpu.dcache.WriteReq_avg_mshr_miss_latency::total 64252.342286                       # average WriteReq mshr miss latency
system.cpu.dcache.SoftPFReq_hits::.cpu.data         6142                       # number of SoftPFReq hits
system.cpu.dcache.SoftPFReq_hits::total          6142                       # number of SoftPFReq hits
system.cpu.dcache.SoftPFReq_misses::.cpu.data          331                       # number of SoftPFReq misses
system.cpu.dcache.SoftPFReq_misses::total          331                       # number of SoftPFReq misses
system.cpu.dcache.SoftPFReq_accesses::.cpu.data         6473                       # number of SoftPFReq accesses(hits+misses)
system.cpu.dcache.SoftPFReq_accesses::total         6473                       # number of SoftPFReq accesses(hits+misses)
system.cpu.dcache.SoftPFReq_miss_rate::.cpu.data     0.051135                       # miss rate for SoftPFReq accesses
system.cpu.dcache.SoftPFReq_miss_rate::total     0.051135                       # miss rate for SoftPFReq accesses
system.cpu.dcache.SoftPFReq_mshr_misses::.cpu.data          328                       # number of SoftPFReq MSHR misses
system.cpu.dcache.SoftPFReq_mshr_misses::total          328                       # number of SoftPFReq MSHR misses
system.cpu.dcache.SoftPFReq_mshr_miss_latency::.cpu.data     20022500                       # number of SoftPFReq MSHR miss cycles
system.cpu.dcache.SoftPFReq_mshr_miss_latency::total     20022500                       # number of SoftPFReq MSHR miss cycles
system.cpu.dcache.SoftPFReq_mshr_miss_rate::.cpu.data     0.050672                       # mshr miss rate for SoftPFReq accesses
system.cpu.dcache.SoftPFReq_mshr_miss_rate::total     0.050672                       # mshr miss rate for SoftPFReq accesses
system.cpu.dcache.SoftPFReq_avg_mshr_miss_latency::.cpu.data 61044.207317                       # average SoftPFReq mshr miss latency
system.cpu.dcache.SoftPFReq_avg_mshr_miss_latency::total 61044.207317                       # average SoftPFReq mshr miss latency
system.cpu.dcache.LoadLockedReq_hits::.cpu.data        20014                       # number of LoadLockedReq hits
system.cpu.dcache.LoadLockedReq_hits::total        20014                       # number of LoadLockedReq hits
system.cpu.dcache.LoadLockedReq_misses::.cpu.data            2                       # number of LoadLockedReq misses
system.cpu.dcache.LoadLockedReq_misses::total            2                       # number of LoadLockedReq misses
system.cpu.dcache.LoadLockedReq_miss_latency::.cpu.data       129500                       # number of LoadLockedReq miss cycles
system.cpu.dcache.LoadLockedReq_miss_latency::total       129500                       # number of LoadLockedReq miss cycles
system.cpu.dcache.LoadLockedReq_accesses::.cpu.data        20016                       # number of LoadLockedReq accesses(hits+misses)
system.cpu.dcache.LoadLockedReq_accesses::total        20016                       # number of LoadLockedReq accesses(hits+misses)
system.cpu.dcache.LoadLockedReq_miss_rate::.cpu.data     0.000100                       # miss rate for LoadLockedReq accesses
system.cpu.dcache.LoadLockedReq_miss_rate::total     0.000100                       # miss rate for LoadLockedReq accesses
system.cpu.dcache.LoadLockedReq_avg_miss_latency::.cpu.data        64750                       # average LoadLockedReq miss latency
system.cpu.dcache.LoadLockedReq_avg_miss_latency::total        64750                       # average LoadLockedReq miss latency
system.cpu.dcache.LoadLockedReq_mshr_misses::.cpu.data            2                       # number of LoadLockedReq MSHR misses
system.cpu.dcache.LoadLockedReq_mshr_misses::total            2                       # number of LoadLockedReq MSHR misses
system.cpu.dcache.LoadLockedReq_mshr_miss_latency::.cpu.data       127500                       # number of LoadLockedReq MSHR miss cycles
system.cpu.dcache.LoadLockedReq_mshr_miss_latency::total       127500                       # number of LoadLockedReq MSHR miss cycles
system.cpu.dcache.LoadLockedReq_mshr_miss_rate::.cpu.data     0.000100                       # mshr miss rate for LoadLockedReq accesses
system.cpu.dcache.LoadLockedReq_mshr_miss_rate::total     0.000100                       # mshr miss rate for LoadLockedReq accesses
system.cpu.dcache.LoadLockedReq_avg_mshr_miss_latency::.cpu.data        63750                       # average LoadLockedReq mshr miss latency
system.cpu.dcache.LoadLockedReq_avg_mshr_miss_latency::total        63750                       # average LoadLockedReq mshr miss latency
system.cpu.dcache.StoreCondReq_hits::.cpu.data        20016                       # number of StoreCondReq hits
system.cpu.dcache.StoreCondReq_hits::total        20016                       # number of StoreCondReq hits
system.cpu.dcache.StoreCondReq_accesses::.cpu.data        20016                       # number of StoreCondReq accesses(hits+misses)
system.cpu.dcache.StoreCondReq_accesses::total        20016                       # number of StoreCondReq accesses(hits+misses)
system.cpu.dcache.tags.pwrStateResidencyTicks::UNDEFINED   3070069500                       # Cumulative time (in ticks) in various power states
system.cpu.dcache.tags.tagsinuse           808.738366                       # Cycle average of tags in use
system.cpu.dcache.tags.total_refs             1864508                       # Total number of references to valid blocks.
system.cpu.dcache.tags.sampled_refs              2279                       # Sample count of references to valid blocks.
system.cpu.dcache.tags.avg_refs            818.125494                       # Average number of references to valid blocks.
system.cpu.dcache.tags.warmup_cycle            144000                       # Cycle when the warmup percentage was hit.
system.cpu.dcache.tags.occ_blocks::.cpu.data   808.738366                       # Average occupied blocks per requestor
system.cpu.dcache.tags.occ_percent::.cpu.data     0.789784                       # Average percentage of cache occupancy
system.cpu.dcache.tags.occ_percent::total     0.789784                       # Average percentage of cache occupancy
system.cpu.dcache.tags.occ_task_id_blocks::1024         1024                       # Occupied blocks per task id
system.cpu.dcache.tags.age_task_id_blocks_1024::0          168                       # Occupied blocks per task id
system.cpu.dcache.tags.age_task_id_blocks_1024::1          391                       # Occupied blocks per task id
system.cpu.dcache.tags.age_task_id_blocks_1024::2           91                       # Occupied blocks per task id
system.cpu.dcache.tags.age_task_id_blocks_1024::3          374                       # Occupied blocks per task id
system.cpu.dcache.tags.occ_task_id_percent::1024            1                       # Percentage of cache occupancy per task id
system.cpu.dcache.tags.tag_accesses           3733227                       # Number of tag accesses
system.cpu.dcache.tags.data_accesses          3733227                       # Number of data accesses
system.cpu.itb.walker.pwrStateResidencyTicks::UNDEFINED   3070069500                       # Cumulative time (in ticks) in various power states
system.cpu.itb.stage2_mmu.stage2_tlb.walker.pwrStateResidencyTicks::UNDEFINED   3070069500                       # Cumulative time (in ticks) in various power states

---------- End Simulation Statistics   ----------
